================================
How to Use 5-text_indentation.py
================================

This defines a text-indentation function ``text_indentation(text)``.

Usage
=====

Text is printed with two new lines after each of the characters ``.``, ``?``,
and ``:``.

::

    >>> text_indentation = __import__('5-text_indentation').text_indentation
    >>> text_indentation("Who are you?")
    Who are you?
    <BLANKLINE>

No spaces are printed at the beginning of a line.

::

    >>> text_indentation("   Hey there.")
    Hey there.
    <BLANKLINE>

::

    >>> text_indentation("          ")

Similarly, no spaces are printed at the end of each printed line.

::

    >>> text_indentation("Hi.   ")
    Hi.
    <BLANKLINE>

::

    >>> text_indentation("    Hold up.    This is a mess.   ")
    Hold up.
    <BLANKLINE>
    This is a mess.
    <BLANKLINE>

New lines are only printed for the characters ``.``, ``?``, and ``:`` -
text not ending with one of these characters is not ended with a new line.

::

    >>> text_indentation("No full stop, improper punctuation")
    No full stop, improper punctuation

New lines within a string are printed as normal.

::

    >>> text_indentation("Printing a new-line! Here we go:\nPrinted.")
    Printing a new-line! Here we go:
    <BLANKLINE>
    <BLANKLINE>
    Printed.
    <BLANKLINE>

::

    >>> text_indentation("\n\n Printing two new lines.")
    <BLANKLINE>
    <BLANKLINE>
    Printing two new lines.
    <BLANKLINE>

::
    >>> text_indentation("Sneaking in a \n new line.")
    Sneaking in a 
    new line.
    <BLANKLINE>

A combo example:

::

    >>> text_indentation("Lorem ipsum dolor sit amet, consectetur adipiscing "
    ... "elit. Quonam modo? Utrum igitur tibi litteram videor an totas paginas "
    ... "commovere? Non autem hoc: igitur ne illud quidem. Fortasse id optimum, "
    ... "sed ubi illud: Plus semper voluptatis? Teneo, inquit, finem illi videri "
    ... "nihil dolere. Transfer idem ad modestiam vel temperantiam, quae est "
    ... "moderatio cupiditatum rationi oboediens. Si id dicis, vicimus. Inde "
    ... "sermone vario sex illa a Dipylo stadia confecimus. Sin aliud quid "
    ... "voles, postea. Quae animi affectio suum cuique tribuens atque hanc, "
    ... "quam dico. Utinam quidem dicerent alium alio beatiorem! Iam ruinas "
    ... "videres") # doctest: +NORMALIZE_WHITESPACE
    Lorem ipsum dolor sit amet, consectetur adipiscing elit.
    <BLANKLINE>
    Quonam modo?
    <BLANKLINE>
    Utrum igitur tibi litteram videor an totas paginas commovere?
    <BLANKLINE>
    Non autem hoc:
    <BLANKLINE>
    igitur ne illud quidem.
    <BLANKLINE>
    Fortasse id optimum, sed ubi illud:
    <BLANKLINE>
    Plus semper voluptatis?
    <BLANKLINE>
    Teneo, inquit, finem illi videri nihil dolere.
    <BLANKLINE>
    Transfer idem ad modestiam vel temperantiam, 
    quae est moderatio cupiditatum rationi oboediens.
    <BLANKLINE>
    Si id dicis, vicimus.
    <BLANKLINE>
    Inde sermone vario sex illa a Dipylo stadia confecimus.
    <BLANKLINE>
    Sin aliud quid voles, postea.
    <BLANKLINE>
    Quae animi affectio suum cuique tribuens atque hanc, quam dico.
    <BLANKLINE>
    Utinam quidem dicerent alium alio beatiorem! Iam ruinas videres

Invalid Text
============

The paramter ``text`` must be a string. Otherwise, a TypeError is raised.

::

    >>> text_indentation(9)
    Traceback (most recent call last):
    TypeError: text must be a string

::

    >>> text_indentation({"two": 2, "two": 2})
    Traceback (most recent call last):
    TypeError: text must be a string

::

    >>> text_indentation(None)
    Traceback (most recent call last):
    TypeError: text must be a string
